LTspice 24.1.8 for Windows
Circuit: C:\Users\HP\Desktop\SeriesVoltage.net
Start Time: Sat Jun  7 00:25:51 2025
solver = Normal
Maximum thread count: 12
tnom = 27
temp = 27
method = trap
Direct Newton iteration for .op point succeeded.
Total elapsed time: 0.648 seconds.

Files loaded:
C:\Users\HP\Desktop\SeriesVoltage.net
C:\Users\HP\AppData\Local\LTspice\lib\cmp\standard.dio
C:\Users\HP\AppData\Local\LTspice\lib\cmp\standard.bjt

