LTspice 24.1.8 for Windows
Circuit: C:\Users\HP\Desktop\shuntvoltage.net
Start Time: Sat Jun  7 00:25:21 2025
solver = Normal
Maximum thread count: 12
tnom = 27
temp = 27
method = trap
.OP point found by inspection.
.step r=1000
.step r=2800
.step r=4600
.step r=6400
.step r=8200
.step r=10000
Total elapsed time: 0.576 seconds.

Files loaded:
C:\Users\HP\Desktop\shuntvoltage.net
C:\Users\HP\AppData\Local\LTspice\lib\cmp\standard.dio
C:\Users\HP\AppData\Local\LTspice\lib\cmp\standard.bjt

